
     RDKit          3D

 96106  0  0  0  0  0  0  0  0999 V2000
    2.0060   -4.1590   -3.9539 C   0  0  0  0  0  0  0  0  0  0  0  0
    2.3307   -4.5718   -2.6592 C   0  0  0  0  0  0  0  0  0  0  0  0
    2.6212   -3.6234   -1.6774 C   0  0  0  0  0  0  0  0  0  0  0  0
    2.5774   -2.2452   -1.9759 C   0  0  0  0  0  0  0  0  0  0  0  0
    2.2814   -1.8478   -3.2927 C   0  0  0  0  0  0  0  0  0  0  0  0
    1.9895   -2.8007   -4.2709 C   0  0  0  0  0  0  0  0  0  0  0  0
    2.9003   -1.2785   -0.9006 C   0  0  0  0  0  0  0  0  0  0  0  0
    3.9060   -1.5047   -0.0305 N   0  0  0  0  0  0  0  0  0  0  0  0
    3.9687   -0.4727    0.7930 N   0  0  0  0  0  0  0  0  0  0  0  0
    3.0158    0.4247    0.4857 C   0  0  0  0  0  0  0  0  0  0  0  0
    2.2822   -0.0656   -0.5803 C   0  0  0  0  0  0  0  0  0  0  0  0
    1.4294    0.7122   -1.4357 N   0  0  0  0  0  0  0  0  0  0  0  0
    1.8811    1.3108   -2.5286 N   0  0  0  0  0  0  0  0  0  0  0  0
    0.8170    1.7378   -3.2299 C   0  0  0  0  0  0  0  0  0  0  0  0
   -0.3454    1.3967   -2.5698 C   0  0  0  0  0  0  0  0  0  0  0  0
    0.0772    0.7998   -1.3970 C   0  0  0  0  0  0  0  0  0  0  0  0
   -1.0221    0.1963   -0.0221 P   0  0  0  0  0  0  0  0  0  0  0  0
   -2.2444    1.5748    0.5093 C   0  0  0  0  0  0  0  0  0  0  0  0
   -3.4512    0.9925    1.2965 C   0  0  0  0  0  0  0  0  0  0  0  0
   -4.3844    2.1197    1.7885 C   0  0  0  0  0  0  0  0  0  0  0  0
   -4.9170    2.9095    0.5689 C   0  0  0  0  0  0  0  0  0  0  0  0
   -3.7291    3.5247   -0.2015 C   0  0  0  0  0  0  0  0  0  0  0  0
   -2.7868    2.4012   -0.6942 C   0  0  0  0  0  0  0  0  0  0  0  0
   -2.9449    4.4783    0.7309 C   0  0  0  0  0  0  0  0  0  0  0  0
   -2.4101    3.6807    1.9410 C   0  0  0  0  0  0  0  0  0  0  0  0
   -1.4858    2.5430    1.4537 C   0  0  0  0  0  0  0  0  0  0  0  0
   -3.6017    3.0755    2.7139 C   0  0  0  0  0  0  0  0  0  0  0  0
   -1.7920   -1.4390   -0.5960 C   0  0  0  0  0  0  0  0  0  0  0  0
   -2.8867   -1.2314   -1.6780 C   0  0  0  0  0  0  0  0  0  0  0  0
   -3.4540   -2.6070   -2.1181 C   0  0  0  0  0  0  0  0  0  0  0  0
   -2.3174   -3.4681   -2.7158 C   0  0  0  0  0  0  0  0  0  0  0  0
   -1.2191   -3.6832   -1.6509 C   0  0  0  0  0  0  0  0  0  0  0  0
   -0.6656   -2.3137   -1.2075 C   0  0  0  0  0  0  0  0  0  0  0  0
   -1.8205   -4.4189   -0.4351 C   0  0  0  0  0  0  0  0  0  0  0  0
   -2.9523   -3.5672    0.1717 C   0  0  0  0  0  0  0  0  0  0  0  0
   -2.3840   -2.2029    0.6201 C   0  0  0  0  0  0  0  0  0  0  0  0
   -4.0542   -3.3400   -0.8945 C   0  0  0  0  0  0  0  0  0  0  0  0
    2.9038    1.7531    1.1034 C   0  0  0  0  0  0  0  0  0  0  0  0
    3.9466    2.6891    0.9718 C   0  0  0  0  0  0  0  0  0  0  0  0
    3.8813    3.9105    1.6461 C   0  0  0  0  0  0  0  0  0  0  0  0
    2.7876    4.2001    2.4680 C   0  0  0  0  0  0  0  0  0  0  0  0
    1.7594    3.2613    2.6171 C   0  0  0  0  0  0  0  0  0  0  0  0
    1.8212    2.0392    1.9421 C   0  0  0  0  0  0  0  0  0  0  0  0
    4.9544   -0.3515    1.8252 C   0  0  0  0  0  0  0  0  0  0  0  0
    4.5654   -0.2890    3.1692 C   0  0  0  0  0  0  0  0  0  0  0  0
    5.5331   -0.1518    4.1736 C   0  0  0  0  0  0  0  0  0  0  0  0
    6.8864   -0.0670    3.8278 C   0  0  0  0  0  0  0  0  0  0  0  0
    7.2790   -0.1207    2.4873 C   0  0  0  0  0  0  0  0  0  0  0  0
    6.3155   -0.2740    1.4823 C   0  0  0  0  0  0  0  0  0  0  0  0
    1.7774   -4.8981   -4.7131 H   0  0  0  0  0  0  0  0  0  0  0  0
    2.3479   -5.6311   -2.4104 H   0  0  0  0  0  0  0  0  0  0  0  0
    2.8612   -3.9574   -0.6720 H   0  0  0  0  0  0  0  0  0  0  0  0
    2.3105   -0.8101   -3.5830 H   0  0  0  0  0  0  0  0  0  0  0  0
    1.7638   -2.4867   -5.2822 H   0  0  0  0  0  0  0  0  0  0  0  0
    0.8837    2.2338   -4.1905 H   0  0  0  0  0  0  0  0  0  0  0  0
   -1.3579    1.5542   -2.9236 H   0  0  0  0  0  0  0  0  0  0  0  0
   -4.0553    0.3219    0.6554 H   0  0  0  0  0  0  0  0  0  0  0  0
   -3.0903    0.4078    2.1730 H   0  0  0  0  0  0  0  0  0  0  0  0
   -5.2426    1.6805    2.3465 H   0  0  0  0  0  0  0  0  0  0  0  0
   -5.6067    3.7144    0.9133 H   0  0  0  0  0  0  0  0  0  0  0  0
   -5.4954    2.2330   -0.1014 H   0  0  0  0  0  0  0  0  0  0  0  0
   -4.1122    4.1002   -1.0763 H   0  0  0  0  0  0  0  0  0  0  0  0
   -1.9527    2.8946   -1.2269 H   0  0  0  0  0  0  0  0  0  0  0  0
   -3.3252    1.7444   -1.4111 H   0  0  0  0  0  0  0  0  0  0  0  0
   -3.6076    5.3013    1.0778 H   0  0  0  0  0  0  0  0  0  0  0  0
   -2.0964    4.9429    0.1819 H   0  0  0  0  0  0  0  0  0  0  0  0
   -1.8373    4.3610    2.6121 H   0  0  0  0  0  0  0  0  0  0  0  0
   -1.1148    1.9793    2.3391 H   0  0  0  0  0  0  0  0  0  0  0  0
   -0.6121    2.9760    0.9193 H   0  0  0  0  0  0  0  0  0  0  0  0
   -4.2716    3.8883    3.0719 H   0  0  0  0  0  0  0  0  0  0  0  0
   -3.2391    2.5281    3.6113 H   0  0  0  0  0  0  0  0  0  0  0  0
   -2.4683   -0.7015   -2.5601 H   0  0  0  0  0  0  0  0  0  0  0  0
   -3.7210   -0.6150   -1.2922 H   0  0  0  0  0  0  0  0  0  0  0  0
   -4.2479   -2.4560   -2.8883 H   0  0  0  0  0  0  0  0  0  0  0  0
   -1.8833   -2.9614   -3.6050 H   0  0  0  0  0  0  0  0  0  0  0  0
   -2.7161   -4.4497   -3.0539 H   0  0  0  0  0  0  0  0  0  0  0  0
   -0.4000   -4.2978   -2.0820 H   0  0  0  0  0  0  0  0  0  0  0  0
    0.1450   -2.4621   -0.4608 H   0  0  0  0  0  0  0  0  0  0  0  0
   -0.2318   -1.8040   -2.0919 H   0  0  0  0  0  0  0  0  0  0  0  0
   -2.2191   -5.4071   -0.7510 H   0  0  0  0  0  0  0  0  0  0  0  0
   -1.0336   -4.6085    0.3292 H   0  0  0  0  0  0  0  0  0  0  0  0
   -3.3875   -4.0976    1.0503 H   0  0  0  0  0  0  0  0  0  0  0  0
   -1.5944   -2.3609    1.3896 H   0  0  0  0  0  0  0  0  0  0  0  0
   -3.1987   -1.6445    1.1108 H   0  0  0  0  0  0  0  0  0  0  0  0
   -4.4797   -4.3248   -1.2120 H   0  0  0  0  0  0  0  0  0  0  0  0
   -4.8855   -2.7398   -0.4617 H   0  0  0  0  0  0  0  0  0  0  0  0
    4.8135    2.4606    0.3589 H   0  0  0  0  0  0  0  0  0  0  0  0
    4.6867    4.6291    1.5457 H   0  0  0  0  0  0  0  0  0  0  0  0
    2.7426    5.1394    3.0021 H   0  0  0  0  0  0  0  0  0  0  0  0
    0.9235    3.4752    3.2698 H   0  0  0  0  0  0  0  0  0  0  0  0
    1.0538    1.2912    2.0969 H   0  0  0  0  0  0  0  0  0  0  0  0
    3.5166   -0.3547    3.4385 H   0  0  0  0  0  0  0  0  0  0  0  0
    5.2307   -0.1158    5.2132 H   0  0  0  0  0  0  0  0  0  0  0  0
    7.6347    0.0430    4.6055 H   0  0  0  0  0  0  0  0  0  0  0  0
    8.3263   -0.0454    2.2219 H   0  0  0  0  0  0  0  0  0  0  0  0
    6.6173   -0.3066    0.4442 H   0  0  0  0  0  0  0  0  0  0  0  0
  1  2  2  0
  2  3  1  0
  3  4  2  0
  4  5  1  0
  5  6  2  0
  4  7  1  0
  7  8  2  0
  8  9  1  0
  9 10  1  0
 10 11  2  0
 11 12  1  0
 12 13  1  0
 13 14  2  0
 14 15  1  0
 15 16  2  0
 16 17  1  0
 17 18  1  0
 18 19  1  0
 19 20  1  0
 20 21  1  0
 21 22  1  0
 22 23  1  0
 22 24  1  0
 24 25  1  0
 25 26  1  0
 25 27  1  0
 17 28  1  0
 28 29  1  0
 29 30  1  0
 30 31  1  0
 31 32  1  0
 32 33  1  0
 32 34  1  0
 34 35  1  0
 35 36  1  0
 35 37  1  0
 10 38  1  0
 38 39  2  0
 39 40  1  0
 40 41  2  0
 41 42  1  0
 42 43  2  0
  9 44  1  0
 44 45  2  0
 45 46  1  0
 46 47  2  0
 47 48  1  0
 48 49  2  0
  6  1  1  0
 11  7  1  0
 16 12  1  0
 26 18  1  0
 36 28  1  0
 43 38  1  0
 49 44  1  0
 23 18  1  0
 33 28  1  0
 27 20  1  0
 37 30  1  0
  1 50  1  0
  2 51  1  0
  3 52  1  0
  5 53  1  0
  6 54  1  0
 14 55  1  0
 15 56  1  0
 19 57  1  0
 19 58  1  0
 20 59  1  0
 21 60  1  0
 21 61  1  0
 22 62  1  0
 23 63  1  0
 23 64  1  0
 24 65  1  0
 24 66  1  0
 25 67  1  0
 26 68  1  0
 26 69  1  0
 27 70  1  0
 27 71  1  0
 29 72  1  0
 29 73  1  0
 30 74  1  0
 31 75  1  0
 31 76  1  0
 32 77  1  0
 33 78  1  0
 33 79  1  0
 34 80  1  0
 34 81  1  0
 35 82  1  0
 36 83  1  0
 36 84  1  0
 37 85  1  0
 37 86  1  0
 39 87  1  0
 40 88  1  0
 41 89  1  0
 42 90  1  0
 43 91  1  0
 45 92  1  0
 46 93  1  0
 47 94  1  0
 48 95  1  0
 49 96  1  0
M  END
